240
# Buckminsterfullerene - C60
C  0.74152000  0.00000000  3.55074000
C  1.49730000  1.21210000  3.13720000
C  2.63810000  0.74152000  2.35290000
C  0.74152000  7.13000000  10.68074000
C  1.49730000  8.34210000  10.26720000
C  2.63810000  7.87152000  9.48290000
C  7.87152000  0.00000000  10.68074000
C  8.62730000  1.21210000  10.26720000
C  9.76810000  0.74152000  9.48290000
C  7.87152000  7.13000000  3.55074000
C  8.62730000  8.34210000  3.13720000
C  9.76810000  7.87152000  2.35290000
C  3.55074000  0.74152000  14.26000000
C  3.13720000  1.49730000  13.04790000
C  2.35290000  2.63810000  13.51848000
C  10.68074000  0.74152000  7.13000000
C  10.26720000  1.49730000  5.91790000
C  9.48290000  2.63810000  6.38848000
C  10.68074000  7.87152000  14.26000000
C  10.26720000  8.62730000  13.04790000
C  9.48290000  9.76810000  13.51848000
C  3.55074000  7.87152000  7.13000000
C  3.13720000  8.62730000  5.91790000
C  2.35290000  9.76810000  6.38848000
C  0.00000000  10.68074000  6.38848000
C  13.04790000  10.26720000  5.63270000
C  13.51848000  9.48290000  4.49190000
C  7.13000000  3.55074000  6.38848000
C  5.91790000  3.13720000  5.63270000
C  6.38848000  2.35290000  4.49190000
C  0.00000000  3.55074000  13.51848000
C  13.04790000  3.13720000  12.76270000
C  13.51848000  2.35290000  11.62190000
C  7.13000000  10.68074000  13.51848000
C  5.91790000  10.26720000  12.76270000
C  6.38848000  9.48290000  11.62190000
C  13.51848000  0.00000000  10.70926000
C  12.76270000  13.04790000  11.12280000
C  11.62190000  13.51848000  11.90710000
C  13.51848000  7.13000000  3.57926000
C  12.76270000  5.91790000  3.99280000
C  11.62190000  6.38848000  4.77710000
C  6.38848000  0.00000000  3.57926000
C  5.63270000  13.04790000  3.99280000
C  4.49190000  13.51848000  4.77710000
C  6.38848000  7.13000000  10.70926000
C  5.63270000  5.91790000  11.12280000
C  4.49190000  6.38848000  11.90710000
C  3.57926000  6.38848000  0.00000000
C  3.99280000  5.63270000  1.21210000
C  4.77710000  4.49190000  0.74152000
C  10.70926000  6.38848000  7.13000000
C  11.12280000  5.63270000  8.34210000
C  11.90710000  4.49190000  7.87152000
C  10.70926000  13.51848000  0.00000000
C  11.12280000  12.76270000  1.21210000
C  11.90710000  11.62190000  0.74152000
C  3.57926000  13.51848000  7.13000000
C  3.99280000  12.76270000  8.34210000
C  4.77710000  11.62190000  7.87152000
C  3.55074000  13.51848000  0.00000000
C  3.13720000  12.76270000  1.21210000
C  2.35290000  11.62190000  0.74152000
C  10.68074000  13.51848000  7.13000000
C  10.26720000  12.76270000  8.34210000
C  9.48290000  11.62190000  7.87152000
C  10.68074000  6.38848000  0.00000000
C  10.26720000  5.63270000  1.21210000
C  9.48290000  4.49190000  0.74152000
C  3.55074000  6.38848000  7.13000000
C  3.13720000  5.63270000  8.34210000
C  2.35290000  4.49190000  7.87152000
C  0.00000000  10.70926000  0.74152000
C  13.04790000  11.12280000  1.49730000
C  13.51848000  11.90710000  2.63810000
C  7.13000000  3.57926000  0.74152000
C  5.91790000  3.99280000  1.49730000
C  6.38848000  4.77710000  2.63810000
C  0.00000000  3.57926000  7.87152000
C  13.04790000  3.99280000  8.62730000
C  13.51848000  4.77710000  9.76810000
C  7.13000000  10.70926000  7.87152000
C  5.91790000  11.12280000  8.62730000
C  6.38848000  11.90710000  9.76810000
C  6.38848000  0.00000000  10.68074000
C  5.63270000  1.21210000  10.26720000
C  4.49190000  0.74152000  9.48290000
C  6.38848000  7.13000000  3.55074000
C  5.63270000  8.34210000  3.13720000
C  4.49190000  7.87152000  2.35290000
C  13.51848000  0.00000000  3.55074000
C  12.76270000  1.21210000  3.13720000
C  11.62190000  0.74152000  2.35290000
C  13.51848000  7.13000000  10.68074000
C  12.76270000  8.34210000  10.26720000
C  11.62190000  7.87152000  9.48290000
C  10.70926000  0.74152000  0.00000000
C  11.12280000  1.49730000  13.04790000
C  11.90710000  2.63810000  13.51848000
C  3.57926000  0.74152000  7.13000000
C  3.99280000  1.49730000  5.91790000
C  4.77710000  2.63810000  6.38848000
C  3.57926000  7.87152000  0.00000000
C  3.99280000  8.62730000  13.04790000
C  4.77710000  9.76810000  13.51848000
C  10.70926000  7.87152000  7.13000000
C  11.12280000  8.62730000  5.91790000
C  11.90710000  9.76810000  6.38848000
C  1.21210000  10.26720000  5.63270000
C  0.74152000  9.48290000  4.49190000
C  8.34210000  3.13720000  5.63270000
C  7.87152000  2.35290000  4.49190000
C  1.21210000  3.13720000  12.76270000
C  0.74152000  2.35290000  11.62190000
C  8.34210000  10.26720000  12.76270000
C  7.87152000  9.48290000  11.62190000
C  0.00000000  3.57926000  6.38848000
C  1.21210000  3.99280000  5.63270000
C  0.74152000  4.77710000  4.49190000
C  7.13000000  10.70926000  6.38848000
C  8.34210000  11.12280000  5.63270000
C  7.87152000  11.90710000  4.49190000
C  0.00000000  10.70926000  13.51848000
C  1.21210000  11.12280000  12.76270000
C  0.74152000  11.90710000  11.62190000
C  7.13000000  3.57926000  13.51848000
C  8.34210000  3.99280000  12.76270000
C  7.87152000  4.77710000  11.62190000
C  0.74152000  7.13000000  3.57926000
C  1.49730000  8.34210000  3.99280000
C  2.63810000  7.87152000  4.77710000
C  0.74152000  0.00000000  10.70926000
C  1.49730000  1.21210000  11.12280000
C  2.63810000  0.74152000  11.90710000
C  7.87152000  7.13000000  10.70926000
C  8.62730000  8.34210000  11.12280000
C  9.76810000  7.87152000  11.90710000
C  7.87152000  0.00000000  3.57926000
C  8.62730000  1.21210000  3.99280000
C  9.76810000  0.74152000  4.77710000
C  10.26720000  1.49730000  8.34210000
C  9.48290000  2.63810000  7.87152000
C  3.13720000  1.49730000  1.21210000
C  2.35290000  2.63810000  0.74152000
C  3.13720000  8.62730000  8.34210000
C  2.35290000  9.76810000  7.87152000
C  10.26720000  8.62730000  1.21210000
C  9.48290000  9.76810000  0.74152000
C  0.00000000  10.68074000  7.87152000
C  13.04790000  10.26720000  8.62730000
C  13.51848000  9.48290000  9.76810000
C  7.13000000  3.55074000  7.87152000
C  5.91790000  3.13720000  8.62730000
C  6.38848000  2.35290000  9.76810000
C  0.00000000  3.55074000  0.74152000
C  13.04790000  3.13720000  1.49730000
C  13.51848000  2.35290000  2.63810000
C  7.13000000  10.68074000  0.74152000
C  5.91790000  10.26720000  1.49730000
C  6.38848000  9.48290000  2.63810000
C  5.63270000  5.91790000  3.13720000
C  4.49190000  6.38848000  2.35290000
C  5.63270000  13.04790000  10.26720000
C  4.49190000  13.51848000  9.48290000
C  12.76270000  5.91790000  10.26720000
C  11.62190000  6.38848000  9.48290000
C  12.76270000  13.04790000  3.13720000
C  11.62190000  13.51848000  2.35290000
C  1.21210000  3.99280000  8.62730000
C  0.74152000  4.77710000  9.76810000
C  8.34210000  11.12280000  8.62730000
C  7.87152000  11.90710000  9.76810000
C  1.21210000  11.12280000  1.49730000
C  0.74152000  11.90710000  2.63810000
C  8.34210000  3.99280000  1.49730000
C  7.87152000  4.77710000  2.63810000
C  1.49730000  5.91790000  3.99280000
C  2.63810000  6.38848000  4.77710000
C  1.49730000  13.04790000  11.12280000
C  2.63810000  13.51848000  11.90710000
C  8.62730000  5.91790000  11.12280000
C  9.76810000  6.38848000  11.90710000
C  8.62730000  13.04790000  3.99280000
C  9.76810000  13.51848000  4.77710000
C  11.12280000  1.49730000  1.21210000
C  11.90710000  2.63810000  0.74152000
C  3.99280000  1.49730000  8.34210000
C  4.77710000  2.63810000  7.87152000
C  3.99280000  8.62730000  1.21210000
C  4.77710000  9.76810000  0.74152000
C  11.12280000  8.62730000  8.34210000
C  11.90710000  9.76810000  7.87152000
C  1.21210000  3.13720000  1.49730000
C  0.74152000  2.35290000  2.63810000
C  8.34210000  10.26720000  1.49730000
C  7.87152000  9.48290000  2.63810000
C  1.21210000  10.26720000  8.62730000
C  0.74152000  9.48290000  9.76810000
C  8.34210000  3.13720000  8.62730000
C  7.87152000  2.35290000  9.76810000
C  8.62730000  13.04790000  10.26720000
C  9.76810000  13.51848000  9.48290000
C  8.62730000  5.91790000  3.13720000
C  9.76810000  6.38848000  2.35290000
C  1.49730000  13.04790000  3.13720000
C  2.63810000  13.51848000  2.35290000
C  1.49730000  5.91790000  10.26720000
C  2.63810000  6.38848000  9.48290000
C  3.13720000  12.76270000  13.04790000
C  2.35290000  11.62190000  13.51848000
C  10.26720000  12.76270000  5.91790000
C  9.48290000  11.62190000  6.38848000
C  10.26720000  5.63270000  13.04790000
C  9.48290000  4.49190000  13.51848000
C  3.13720000  5.63270000  5.91790000
C  2.35290000  4.49190000  6.38848000
C  13.04790000  3.99280000  5.63270000
C  13.51848000  4.77710000  4.49190000
C  5.91790000  11.12280000  5.63270000
C  6.38848000  11.90710000  4.49190000
C  13.04790000  11.12280000  12.76270000
C  13.51848000  11.90710000  11.62190000
C  5.91790000  3.99280000  12.76270000
C  6.38848000  4.77710000  11.62190000
C  11.12280000  5.63270000  5.91790000
C  11.90710000  4.49190000  6.38848000
C  3.99280000  5.63270000  13.04790000
C  4.77710000  4.49190000  13.51848000
C  3.99280000  12.76270000  5.91790000
C  4.77710000  11.62190000  6.38848000
C  11.12280000  12.76270000  13.04790000
C  11.90710000  11.62190000  13.51848000
C  5.63270000  1.21210000  3.99280000
C  4.49190000  0.74152000  4.77710000
C  5.63270000  8.34210000  11.12280000
C  4.49190000  7.87152000  11.90710000
C  12.76270000  1.21210000  11.12280000
C  11.62190000  0.74152000  11.90710000
C  12.76270000  8.34210000  3.99280000
C  11.62190000  7.87152000  4.77710000
